   23

Zn   -0.4008793795469914   0.3226270325613297   1.2228244758893045
C    -1.0424310651654580  -1.0341858201044098  -1.1454714540045914
N    -1.5584630759411260  -2.0713113342026963  -1.6339304342651804
N    -1.5244532495170791  -0.7533700199515529   0.0953335158559288
C    -2.3805691758980911  -2.7130457848359071  -0.5974537107320458
C    -2.3143723700033108  -1.9006992683721702   0.5097210840218287
C    -0.4585267725694622  -0.0282886957304014  -1.8695352865110511
H    -2.4916612529007689  -3.7745237416552659  -0.7741295193876624
H    -2.6470315376629108  -1.8978314731798718   1.5390999720523080
H     0.4347758314057317   0.4394237546230370  -1.4395147079742603
H    -0.1260452439757123  -0.5023779525645018  -2.8003150048622767
H    -1.1189610477164951   0.7246952096598852  -2.3150644636415612
C    -0.3223425152179708   2.6421381648079580   2.1199602414658392
N     0.4624246889336961   3.3977408748224955   2.8003150048622767
N     0.1763407643526216   1.9995895078506325   1.0739461027117110
C     1.7457728523033167   3.0480521875514222   2.2354320513319688
C     1.6559125986234293   2.1613864490276313   1.1931106058729444
C    -1.7744410514040634   2.7444846799868063   2.0602655202905238
H     2.6470315376629099   3.3022897586391977   2.7770844147335008
H     2.2815400091567763   1.4708937653285565   0.6434730522399887
H    -1.9573274185434988   2.5960594057072592   0.9896637743111811
H    -2.3832440431848130   1.9411128665496094   2.4910912838881059
H    -1.9282569061114456   3.7745237416552735   2.4023395713243962
